
  -OEChem-04012114442D

  3  2  0     0  0  0  0  0  0999 V2000
    0.0000    0.0000    0.0000 O   0  0  0  0  0  0  0  0  0  0  0  0
    0.7500    0.0000    0.0000 H   0  0  0  0  0  0  0  0  0  0  0  0
   -0.3750   -0.6495    0.0000 H   0  0  0  0  0  0  0  0  0  0  0  0
  1  2  1  0  0  0  0
  1  3  1  0  0  0  0
M  END
$$$$
