
     RDKit          3D

  3  2  0  0  0  0  0  0  0  0999 V2000
   -0.0008    0.3664   -0.0000 O   0  0  0  0  0  0  0  0  0  0  0  0
   -0.8123   -0.1835   -0.0000 H   0  0  0  0  0  0  0  0  0  0  0  0
    0.8131   -0.1829    0.0000 H   0  0  0  0  0  0  0  0  0  0  0  0
  1  2  1  0
  1  3  1  0
M  END
$$$$
