@<TRIPOS>MOLECULE
*****
    3     2     0     0     0
SMALL
NO_CHARGES

@<TRIPOS>ATOM
      1 O1          0.0000    0.0000    0.0000 O.3       1 UNL1           nan
      2 H1          0.0000    0.0000    0.0000 H         1 UNL1           nan
      3 H2          0.0000    0.0000    0.0000 H         1 UNL1           nan
@<TRIPOS>BOND
     1    1    2 1
     2    1    3 1
